LTspice 24.0.9 for Windows
Circuit: * C:\Users\Simon\Dropbox\Electronics\sinking\simulation\Draft1.asc
Start Time: Mon Mar  4 01:17:35 2024
solver = Normal
Maximum thread count: 8
tnom = 27
temp = 27
method = modified trap
.OP point found by inspection.
Total elapsed time: 0.140 seconds.

