LTspice 24.0.9 for Windows
Circuit: * C:\Users\Simon\Dropbox\Electronics\sinking\simulation\opto_input.asc
Start Time: Mon Apr 22 00:48:24 2024
solver = Normal
Maximum thread count: 8



Limiting rise time of source v3 to 0.0001
Limiting fall time of source v3 to 0.0001
WARNING: Less than two connections to node nc_01.  This node is used by v1.
WARNING: Less than two connections to node gpio.  This node is used by a1.
Direct Newton iteration for .op point succeeded.
.step t=0.001



.step t=0.005



.step t=0.01
tnom = 27
temp = 27
method = modified trap
.step t=0.02
Total elapsed time: 0.259 seconds.

