LTspice 24.0.9 for Windows
Circuit: * C:\Users\Simon\Dropbox\Electronics\sinking\simulation\opto_input_alt_2_schitt_opto.asc
Start Time: Mon Mar  4 22:29:51 2024
solver = Normal
Maximum thread count: 8
tnom = 27
temp = 27
method = modified trap
WARNING: Less than two connections to node gpio.  This node is used by a1.
Direct Newton iteration for .op point succeeded.
Heightened Def Con from 0.00871644 to 0.00871644
Total elapsed time: 0.397 seconds.

