LTspice 24.0.9 for Windows
Circuit: * C:\Users\Simon\Dropbox\Electronics\sinking\simulation\opto_input.asc
Start Time: Wed Feb 28 12:45:04 2024
solver = Normal
Maximum thread count: 8
tnom = 27
temp = 27
method = modified trap
Limiting rise time of source v3 to 1.94289e-17
Limiting fall time of source v3 to 1.94289e-17
WARNING: Less than two connections to node nc_01.  This node is used by v1.
WARNING: Less than two connections to node gpio.  This node is used by a1.
Direct Newton iteration for .op point succeeded.
Total elapsed time: 0.217 seconds.

